
     RDKit          3D

 38 41  0  0  0  0  0  0  0  0999 V2000
  -13.4120   16.2900  -23.5140 O   0  0  0  0  0  0  0  0  0  0  0  0
  -14.0390   15.2460  -23.7520 C   0  0  0  0  0  0  0  0  0  0  0  0
  -15.3490   15.2130  -23.4560 N   0  0  0  0  0  0  0  0  0  0  0  0
  -16.0720   16.4110  -22.9370 C   0  0  1  0  0  0  0  0  0  0  0  0
  -16.1430   17.4800  -24.0070 C   0  0  0  0  0  0  0  0  0  0  0  0
  -16.3870   17.1740  -25.1720 O   0  0  0  0  0  0  0  0  0  0  0  0
  -15.9120   18.7320  -23.6000 N   0  0  0  0  0  0  0  0  0  0  0  0
  -15.9860   19.9760  -24.3950 C   0  0  2  0  0  0  0  0  0  0  0  0
  -17.4610   20.2090  -24.7780 C   0  0  0  0  0  0  0  0  0  0  0  0
  -15.1350   19.9790  -25.6550 C   0  0  0  0  0  0  0  0  0  0  0  0
  -13.7230   19.4530  -25.4880 C   0  0  0  0  0  0  0  0  0  0  0  0
  -15.5390   21.0950  -23.4390 C   0  0  0  0  0  0  0  0  0  0  0  0
  -17.4300   16.1180  -22.3810 C   0  0  0  0  0  0  0  0  0  0  0  0
  -18.5740   16.2110  -23.1740 C   0  0  0  0  0  0  0  0  0  0  0  0
  -19.6060   15.8440  -22.3420 C   0  0  0  0  0  0  0  0  0  0  0  0
  -19.0890   15.5500  -21.0960 C   0  0  0  0  0  0  0  0  0  0  0  0
  -17.7550   15.7230  -21.1520 N   0  0  0  0  0  0  0  0  0  0  0  0
  -16.7980   15.5150  -20.0350 C   0  0  0  0  0  0  0  0  0  0  0  0
  -16.1030   14.0340  -23.7420 C   0  0  0  0  0  0  0  0  0  0  0  0
  -17.0070   14.0780  -24.7930 C   0  0  0  0  0  0  0  0  0  0  0  0
  -17.8040   12.9730  -25.1160 C   0  0  0  0  0  0  0  0  0  0  0  0
  -15.9970   12.8560  -23.0010 C   0  0  0  0  0  0  0  0  0  0  0  0
  -16.7770   11.7370  -23.3370 C   0  0  0  0  0  0  0  0  0  0  0  0
  -17.6880   11.7860  -24.3940 C   0  0  0  0  0  0  0  0  0  0  0  0
  -18.4070   10.6270  -24.6370 N   0  0  0  0  0  0  0  0  0  0  0  0
  -19.3800   10.3850  -25.5220 C   0  0  0  0  0  0  0  0  0  0  0  0
  -20.0530    9.0580  -25.6450 C   0  0  0  0  0  0  0  0  0  0  0  0
  -19.7660   11.2790  -26.2610 O   0  0  0  0  0  0  0  0  0  0  0  0
  -13.2970   14.0520  -24.3380 C   0  0  0  0  0  0  0  0  0  0  0  0
  -12.0180   14.5470  -24.7740 N   0  0  0  0  0  0  0  0  0  0  0  0
  -10.9070   14.3230  -24.0180 N   0  0  0  0  0  0  0  0  0  0  0  0
   -9.8140   14.9430  -24.5630 N   0  0  0  0  0  0  0  0  0  0  0  0
  -10.2810   15.5850  -25.6660 C   0  0  0  0  0  0  0  0  0  0  0  0
  -11.6590   15.3490  -25.7880 C   0  0  0  0  0  0  0  0  0  0  0  0
   -9.5830   16.3760  -26.5720 C   0  0  0  0  0  0  0  0  0  0  0  0
  -10.3020   16.9400  -27.6400 C   0  0  0  0  0  0  0  0  0  0  0  0
  -11.6800   16.7030  -27.7630 C   0  0  0  0  0  0  0  0  0  0  0  0
  -12.3870   15.9140  -26.8480 C   0  0  0  0  0  0  0  0  0  0  0  0
  2  1  2  0
  3  2  1  0
  4  3  1  0
  4  5  1  6
  6  5  2  0
  7  5  1  0
  8  7  1  0
  8  9  1  6
 10  8  1  0
 11 10  1  0
 12  8  1  0
 13  4  1  0
 14 13  2  0
 15 14  1  0
 16 15  2  0
 17 13  1  0
 17 16  1  0
 18 17  1  0
 19  3  1  0
 20 19  2  0
 21 20  1  0
 22 19  1  0
 23 22  2  0
 24 23  1  0
 24 21  2  0
 25 24  1  0
 26 25  1  0
 27 26  1  0
 28 26  2  0
 29  2  1  0
 30 29  1  0
 31 30  1  0
 32 31  2  0
 33 32  1  0
 34 30  1  0
 34 33  2  0
 35 33  1  0
 36 35  2  0
 37 36  1  0
 38 34  1  0
 38 37  2  0
M  END
$$$$
