
     RDKit          3D

 21 23  0  0  0  0  0  0  0  0999 V2000
   11.0640   -1.0840   22.8290 C   0  0  0  0  0  0  0  0  0  0  0  0
    5.3440    0.9600   19.2190 C   0  0  0  0  0  0  0  0  0  0  0  0
    5.7680    0.7790   17.8880 C   0  0  0  0  0  0  0  0  0  0  0  0
    7.4860   -0.5950   18.5200 C   0  0  0  0  0  0  0  0  0  0  0  0
    5.6470    0.4810   21.5970 C   0  0  0  0  0  0  0  0  0  0  0  0
    4.5650    1.2720   21.8790 C   0  0  0  0  0  0  0  0  0  0  0  0
    3.8540    1.9170   20.8480 C   0  0  0  0  0  0  0  0  0  0  0  0
    4.2350    1.7690   19.5420 C   0  0  0  0  0  0  0  0  0  0  0  0
   12.7040    0.2900   23.9760 C   0  0  0  0  0  0  0  0  0  0  0  0
    9.6340   -1.4610   22.5700 C   0  0  0  0  0  0  0  0  0  0  0  0
   11.3780   -0.0650   23.7480 C   0  0  0  0  0  0  0  0  0  0  0  0
    8.9780   -0.6040   21.4900 C   0  0  0  0  0  0  0  0  0  0  0  0
   12.0870   -1.7220   22.1480 C   0  0  0  0  0  0  0  0  0  0  0  0
   13.4020   -1.3600   22.3830 C   0  0  0  0  0  0  0  0  0  0  0  0
   13.7260   -0.3570   23.2830 C   0  0  0  0  0  0  0  0  0  0  0  0
    7.1720   -0.5010   19.8550 C   0  0  0  0  0  0  0  0  0  0  0  0
    6.0670    0.3030   20.2550 C   0  0  0  0  0  0  0  0  0  0  0  0
    6.7910    0.0370   17.5470 N   0  0  0  0  0  0  0  0  0  0  0  0
    7.9040   -1.1450   20.8580 N   0  0  0  0  0  0  0  0  0  0  0  0
    9.4200    0.5080   21.2300 O   0  0  0  0  0  0  0  0  0  0  0  0
   14.6660   -2.2000   21.5000 Cl  0  0  0  0  0  0  0  0  0  0  0  0
  3  2  2  0
  6  5  2  0
  7  6  1  0
  8  7  2  0
  8  2  1  0
 10  1  1  0
 11  9  2  0
 11  1  1  0
 12 10  1  0
 13  1  2  0
 14 13  1  0
 15 14  2  0
 15  9  1  0
 16  4  1  0
 17  2  1  0
 17 16  2  0
 17  5  1  0
 18  4  2  0
 18  3  1  0
 19 16  1  0
 19 12  1  0
 20 12  2  0
 21 14  1  0
M  END
$$$$
