
     RDKit          3D

 21 23  0  0  0  0  0  0  0  0999 V2000
   10.4148   -6.9854   23.0121 C   0  0  0  0  0  0  0  0  0  0  0  0
    8.7561   -0.5440   23.0525 C   0  0  0  0  0  0  0  0  0  0  0  0
   10.1725    0.1217   23.0572 C   0  0  0  0  0  0  0  0  0  0  0  0
   11.1595   -1.6544   23.0034 C   0  0  0  0  0  0  0  0  0  0  0  0
    7.8817   -2.1460   23.0366 C   0  0  0  0  0  0  0  0  0  0  0  0
    6.7178   -1.6829   23.0643 C   0  0  0  0  0  0  0  0  0  0  0  0
    6.3008   -0.5434   23.0794 C   0  0  0  0  0  0  0  0  0  0  0  0
    7.2401    0.0993   23.0779 C   0  0  0  0  0  0  0  0  0  0  0  0
    9.0543   -8.4141   22.9812 C   0  0  0  0  0  0  0  0  0  0  0  0
   11.1442   -5.8892   23.0245 C   0  0  0  0  0  0  0  0  0  0  0  0
    9.9158   -7.3864   22.9935 C   0  0  0  0  0  0  0  0  0  0  0  0
   10.9186   -4.6593   22.9888 C   0  0  0  0  0  0  0  0  0  0  0  0
    9.8806   -7.4330   23.0059 C   0  0  0  0  0  0  0  0  0  0  0  0
    9.2832   -8.5275   22.9838 C   0  0  0  0  0  0  0  0  0  0  0  0
    8.8322   -8.6806   22.9853 C   0  0  0  0  0  0  0  0  0  0  0  0
    9.9939   -2.2815   22.9972 C   0  0  0  0  0  0  0  0  0  0  0  0
    8.8485   -1.5255   23.0266 C   0  0  0  0  0  0  0  0  0  0  0  0
   11.5732   -0.6031   23.0328 N   0  0  0  0  0  0  0  0  0  0  0  0
   10.4631   -3.4821   22.9818 N   0  0  0  0  0  0  0  0  0  0  0  0
   10.8859   -4.4627   22.9659 O   0  0  0  0  0  0  0  0  0  0  0  0
    8.9101   -8.8559   22.9682 Cl  0  0  0  0  0  0  0  0  0  0  0  0
  3  2  2  0
  6  5  2  0
  7  6  1  0
  8  7  2  0
  8  2  1  0
 10  1  1  0
 11  9  2  0
 11  1  1  0
 12 10  1  0
 13  1  2  0
 14 13  1  0
 15 14  2  0
 15  9  1  0
 16  4  1  0
 17  2  1  0
 17 16  2  0
 17  5  1  0
 18  4  2  0
 18  3  1  0
 19 16  1  0
 19 12  1  0
 20 12  2  0
 21 14  1  0
M  END
$$$$
